LAMMPS (23 Jun 2022)
units metal
newton on  # newtons 3rd law for pairs

boundary m m m
atom_style atomic # coarse-grain liquids, solids, metals

variable eps equal 1e-6

# ---- Create atoms --- #
# Parameters
variable a equal 5.43  # lattice spacing [Å]
variable xmax equal 40.0  # [Å]
variable ymax equal 40.0  # [Å]
variable zmax equal 15.0  # [Å]

# Number of unit cells to get closest to x-y-z-max
variable xlen equal $(round((v_xmax + 1/4*v_a)/v_a))  # [a]
variable xlen equal 8
variable ylen equal $(round((v_ymax + 1/4*v_a)/v_a))  # [a]
variable ylen equal 8
variable zlen equal $(round((v_zmax)/v_a))  # [a]
variable zlen equal 3
print "Max pos:  $(v_xlen*v_a - 1/4*v_a), $(v_ylen*v_a - 1/4*v_a), $(-v_zlen*v_a)"
Max pos:  42.082499999999996021, 42.082499999999996021, -16.289999999999999147

# Create lattice and simulation box
lattice diamond 5.43
Lattice spacing in x,y,z = 5.43 5.43 5.43
region myreg block -1e-06 8 -1e-06 8 -3 1e-06  units lattice
create_box 1 myreg
Created orthogonal box = (-5.43e-06 -5.43e-06 -16.29) to (43.44 43.44 5.43e-06)
create_atoms 1 box
Created 1664 atoms

# Regions and groups
# variable freeze_zhi equal $(-(v_zlen-1)*v_a + 0.5)
region freeze_region block INF INF INF INF INF $(-v_zlen+1) units lattice
region freeze_region block INF INF INF INF INF -2 units lattice
group freeze_group region freeze_region
640 atoms in group freeze_group
group moving_atoms subtract all freeze_group
1024 atoms in group moving_atoms

# --- Dynamics --- #
# parameters
variable starttemp equal 1780 # [Kelvin]

mass 1 28.0855 # Si atomic mass [u]
velocity moving_atoms create 1780 5432373 dist gaussian

neighbor            0.5 bin
neigh_modify        delay 0 every 1 one 10000

# Stillinger-Weber (SW)
pair_style sw
pair_coeff * * si.sw Si
Reading sw potential file si.sw with DATE: 2007-06-11

# pair_style          airebo 6.4 1 1  # cutoff LJ_flag TORSION_flag cutoff_min
# pair_coeff          * * CH.airebo C # add H ofr hydrogren as2nd particle

fix                 nve moving_atoms nve # (microcanonical)
timestep            0.0005

thermo              100

dump 1 all atom 1 dump.data
run $(floor(0.5/dt))
run 1000
  update every 1 steps, delay 0 steps, check yes
Step          Temp          E_pair         E_mol          TotEng         Press          Volume
0   1094.9729     -6251.2064      0             -6015.8314      8674.9263      30752.075
Averages over the last 6 of 11 rows, steps 500 to 1000:
Temp E_pair E_mol TotEng Press Volume
831.996 -6194.64 0 -6015.8 701.06 35803.5
Loop time of 2.45999 on 1 procs for 1000 steps with 1664 atoms
