LAMMPS (23 Jun 2022)
units metal
newton on #newtons 3rd law for pairs

boundary m m m

atom_style atomic # coarse-grain liquids, solids, metals
read_data ./lammps_sheet # read lattice from file
Reading data file ...
  orthogonal box = (0 0 0) to (130.38 161.09805 4)
  reading atoms ...
  5994 atoms

#--- Dynamics ---#
variable temp equal 5.0 # Kelvin

mass * 12.0107 # "*": all types, [grams/mole]
velocity all create 5 5432373 dist gaussian

neighbor            0.5 bin
neigh_modify        delay 0 every 1

pair_style          airebo 6.4 1 1  # cutoff LJ_flag TORSION_flag cutoff_min
pair_coeff          * * CH.airebo C # add H ofr hydrogren as2nd particle
Reading airebo potential file CH.airebo with DATE: 2011-10-25

fix                 nve all nve # (microcanonical)
timestep            0.0005

thermo              100

# fix 2 all balance 1000 1.05 shift xy 10 1.05 # balance number of particles computed on each processor
dump 1 all custom 1 sheet.data id type x y z vx vy vz

#---- Stretch ---#

# Define block regions for pulling
variable block_elem equal 2 # block thicknes in terms of matrix columns
variable yscale equal 1.230 # length per column
variable block_thickness equal 2*1.23
variable eps equal 1e-3 # small number for avoiding spill of the freeze region

variable ylow_top equal 2.46-0.001
variable yhigh_bottom equal yhi-2.46+0.001

region ylow_region block INF INF INF 2.459 INF INF
region yhigh_region block INF INF 158.655155416543 INF INF INF
group  ylow_group region ylow_region
120 atoms in group ylow_group
group  yhigh_group region yhigh_region
120 atoms in group yhigh_group

# Freeze: set velocity and force to zero
velocity ylow_group set 0 0 0
velocity yhigh_group set 0 0 0
fix freeze1 ylow_group setforce 0.0 0.0 0.0
fix freeze2 yhigh_group setforce 0.0 0.0 0.0

# Relax inner part (pattern) of sheet
# run 200
run  $(floor(0.5/dt)) # [t] = picoseconds
run  1000
  update every 1 steps, delay 0 steps, check yes
Step          Temp          E_pair         E_mol          TotEng         Press          Volume
0   4.794169      -40655.393      0             -40651.68      -61431.088      84032.656
Averages over the last 6 of 11 rows, steps 500 to 1000:
Temp E_pair E_mol TotEng Press Volume
117.138 -40742.5 0 -40651.8 -7383.9 84061.8
Loop time of 52.1945 on 1 procs for 1000 steps with 5994 atoms

variable strain_speed equal "125*0.01" # define strain/stretch speed

# Release freezes
unfix freeze1
unfix freeze2

# Move block in opposite direction
fix ylow_move ylow_group move linear 0 $(-v_strain_speed/2) 0 units box
fix ylow_move ylow_group move linear 0 -0.625 0 units box
fix yhigh_move yhigh_group move linear 0 $(v_strain_speed/2) 0 units box
fix yhigh_move yhigh_group move linear 0 0.625 0 units box

# run 1000
# run $(floor(3*125/dt/v_strain_speed)) # 60000
run  $(floor(4/dt)) # [t] = picoseconds
run  8000
Step          Temp          E_pair         E_mol          TotEng         Press          Volume
1000   123.21141     -40747.252      0             -40651.806     -2681.0228      84032.656
Averages over the last 41 of 81 rows, steps 5000 to 9000:
Temp E_pair E_mol TotEng Press Volume
129.9 -40744.6 0 -40644 -1985.02 255637
Loop time of 429.614 on 1 procs for 8000 steps with 5994 atoms

#########

# run 100

# run 10

# run as: lmp_serial < graphene_sheet.in
